[JUNCTIONS]
101147X 354.978393554688
101147Y 354.978393554688
100593X 348.941589355469
100593Y 348.941589355469
100605X 349.924591064453
100605Y 349.924591064453
101284X 342.649291992188
101284Y 342.649291992188
101498X 343.185607910156
101498Y 343.185607910156
101277X 343.971588134766
101277Y 343.971588134766
101263X 368.997711181641
101263Y 368.997711181641
4002187X 378.797698974609
4002187Y 378.797698974609
101269X 366.992095947266
101269Y 366.992095947266
100903X 349.887298583984
100903Y 349.887298583984
101275X 343.001098632813
101275Y 343.001098632813
101133X 359.630096435547
101133Y 359.630096435547
101154X 349.842285156250
101154Y 349.842285156250
4002063X 370.801300048828
4002063Y 370.801300048828
101132X 360.011596679688
101132Y 360.011596679688
101155X 350.989593505859
101155Y 350.989593505859
100579X 346.944488525391
100579Y 346.944488525391
101137X 353.894989013672
101137Y 353.894989013672
100592X 347.055206298828
100592Y 347.055206298828
100595X 348.926513671875
100595Y 348.926513671875
100587X 347.926391601563
100587Y 347.926391601563
101146X 349.993011474609
101146Y 349.993011474609
101579X 338.983184814453
101579Y 338.983184814453
101258X 367.036010742188
101258Y 367.036010742188
100731X 347.998504638672
100731Y 347.998504638672
101501X 337.987609863281
101501Y 337.987609863281
101283X 344.000610351563
101283Y 344.000610351563
101151X 350.894012451172
101151Y 350.894012451172
102270X 347.997711181641
102270Y 347.997711181641
102282X 347.998687744141
102282Y 347.998687744141
100597X 349.975799560547
100597Y 349.975799560547
90301X 379.970306396484
90301Y 379.970306396484
101278X 344.221191406250
101278Y 344.221191406250
101926X 338.997711181641
101926Y 338.997711181641
101499X 342.399414062500
101499Y 342.399414062500
100725X 349.017700195313
100725Y 349.017700195313
100737X 348.130706787109
100737Y 348.130706787109
101141X 348.335693359375
101141Y 348.335693359375
101131X 361.998901367188
101131Y 361.998901367188
100588X 347.356597900391
100588Y 347.356597900391
100600X 350.903991699219
100600Y 350.903991699219
101134X 354.005310058594
101134Y 354.005310058594
101270X 368.763092041016
101270Y 368.763092041016
90292X 375.991302490234
90292Y 375.991302490234
100730X 348.177307128906
100730Y 348.177307128906
101121X 358.121795654297
101121Y 358.539611816406
101160X 343.515411376953
101160Y 343.515411376953
101145X 349.996307373047
101145Y 349.996307373047
100905X 351.553588867188
100905Y 351.553588867188
101279X 343.954315185547
101279Y 343.954315185547
101282X 343.994110107422
101282Y 343.994110107422
100902X 350.480895996094
100902Y 350.480895996094
100728X 347.988800048828
100728Y 347.988800048828
100735X 348.039215087891
100735Y 348.039215087891
102072X 381.435607910156
102072Y 381.435607910156
100598X 349.909698486328
100598Y 349.909698486328
100596X 349.320098876953
100596Y 349.320098876953
101136X 362.880004882813
101136Y 362.880004882813
101577X 337.859710693359
101577Y 337.859710693359
101256X 365.110595703125
101256Y 365.110595703125
101126X 352.023803710938
101126Y 352.023803710938
90599X 361.380401611328
90599Y 361.380401611328
4001727X 337.945892333984
4001727Y 337.945892333984
101496X 342.735809326172
101496Y 342.735809326172
101129X 362.123809814453
101129Y 362.123809814453
101135X 350.488311767578
101135Y 350.488311767578
91381X 391.000885009766
91381Y 391.000885009766
100911X 350.894989013672
100911Y 350.894989013672
101125X 353.987213134766
101125Y 353.987213134766
101573X 338.916198730469
101573Y 338.916198730469
101285X 343.679595947266
101285Y 343.679595947266
101257X 357.077606201172
101257Y 357.077606201172
101142X 348.691711425781
101142Y 348.691711425781
101280X 344.999694824219
101280Y 344.999694824219
100603X 350.950286865234
100603Y 350.950286865234
90298X 386.322814941406
90298Y 386.322814941406
102088X 358.490997314453
102088Y 358.490997314453
101572X 342.362396240234
101572Y 342.362396240234
4006335X 382.032989501953
4006335Y 382.032989501953
100910X 353.743988037109
100910Y 353.743988037109
101281X 344.914611816406
101281Y 344.914611816406
100733X 348.996185302734
100733Y 348.996185302734
101580X 338.938385009766
101580Y 338.938385009766
101578X 337.986785888672
101578Y 337.986785888672
100607Y 345.790313720703
100726X 349.029602050781
100726Y 349.029602050781
101130X 361.892791748047
101130Y 361.892791748047
101264X 367.055603027344
101264Y 367.055603027344
100591X 347.023986816406
100591Y 347.023986816406
100729X 347.979705810547
100729Y 347.979705810547
101144X 349.978790283203
101144Y 349.978790283203
100736X 347.998687744141
100736Y 347.998687744141
91384X 382.347900390625
91384Y 382.347900390625
4006332Y 335.829101562500
101118X 350.927886962891
101118Y 350.927886962891
101584X 337.971801757813
101584Y 337.971801757813
102128X 343.002197265625
102128Y 342.997894287109
100912X 348.935699462891
100912Y 348.935699462891
91260X 361.420288085938
91260Y 361.420288085938
4002042X 372.049102783203
4002042Y 372.049102783203
100589X 346.866485595703
100589Y 346.866485595703
101500X 338.810211181641
101500Y 338.810211181641
100907X 350.820007324219
100907Y 350.820007324219
101265X 368.019287109375
101265Y 368.019287109375
100606X 347.977691650391
100606Y 347.977691650391
100734X 348.156311035156
100734Y 348.156311035156
100581X 345.973510742188
100581Y 345.973510742188
101140X 348.493499755859
101140Y 348.493499755859
101138X 349.729400634766
101138Y 349.729400634766
101255X 359.333801269531
101255Y 359.333801269531
101158X 342.489501953125
101158Y 342.489501953125
101571X 342.160186767578
101571Y 342.160186767578
90297X 387.039306640625
90297Y 387.039306640625
101268X 368.060913085938
101268Y 368.060913085938
101276X 342.903106689453
101276Y 342.903106689453
101259X 368.121185302734
101259Y 368.121185302734
101117X 349.190704345703
101117Y 349.190704345703
101266X 368.066406250000
101266Y 368.066406250000
91261X 362.047485351563
91261Y 362.047485351563
100584X 348.019989013672
100584Y 348.019989013672
100738X 347.999114990234
100738Y 347.999114990234
100586X 347.969787597656
100586Y 347.969787597656
101581X 338.965087890625
101581Y 338.965087890625
101583X 339.047485351563
101583Y 339.047485351563
100585X 347.965087890625
100585Y 347.965087890625
101261X 367.055603027344
101261Y 367.055603027344
101150X 354.221313476563
101150Y 354.221313476563
101152X 349.729400634766
101152Y 349.729400634766
102069X 369.576507568359
102069Y 369.576507568359
101262X 368.883392333984
101262Y 368.883392333984
100582X 345.978790283203
100582Y 345.978790283203
90272X 367.000213623047
90272Y 367.000213623047
100904X 351.343109130859
100904Y 351.343109130859
90271X 366.106689453125
90271Y 366.106689453125
102070X 368.974792480469
102070Y 368.974792480469
101495X 343.703308105469
101495Y 343.703308105469
101924X 340.608489990234
101924Y 340.884399414063
100900X 349.041595458984
100900Y 349.041595458984
101260X 364.043090820313
101260Y 364.043090820313
100732X 348.067687988281
100732Y 348.067687988281
101497X 337.998413085938
101497Y 337.998413085938
90300X 378.421905517578
90300Y 378.421905517578
101128X 362.095611572266
101128Y 362.095611572266
100583X 345.996612548828
100583Y 345.996612548828
100590X 347.022399902344
100590Y 347.022399902344
101119X 350.884704589844
101119Y 350.884704589844
101139X 349.339691162109
101139Y 349.339691162109
101159X 342.996704101563
101159Y 342.996704101563
100906X 350.941497802734
100906Y 350.941497802734
101149X 353.745910644531
101149Y 353.745910644531
101153X 362.067291259766
101153Y 362.067291259766
101124X 355.672302246094
101124Y 355.672302246094
101148X 354.114105224609
101148Y 354.114105224609
101271X 369.000213623047
101271Y 369.000213623047
100908X 349.997314453125
100908Y 349.997314453125
101143X 349.014099121094
101143Y 349.014099121094
102071X 377.022491455078
102071Y 377.022491455078
101494X 343.235290527344
101494Y 343.235290527344
100604X 349.839508056641
100604Y 349.839508056641
100594X 348.940490722656
100594Y 348.940490722656
100739X 349.005310058594
100739Y 349.005310058594
101116X 348.999114990234
101116Y 348.999114990234
100909X 349.878509521484
100909Y 349.878509521484
100724X 349.023498535156
100724Y 349.023498535156
101120X 354.223785400391
101120Y 354.223785400391
4001772X 340.539611816406
4001772Y 340.539611816406
101210X 344.253692626953
101210Y 344.253692626953
101127X 352.048095703125
101127Y 352.048095703125
101122X 359.020202636719
101122Y 359.020202636719
100578Y 344.998596191406
101123X 357.279296875000
101123Y 357.279296875000
100580X 347.005615234375
100580Y 347.005615234375
101576X 338.995697021484
101576Y 338.995697021484
101582X 338.037292480469
101582Y 338.037292480469
101925X 340.903503417969
101925Y 340.903503417969
4006334X 349.999694824219
4006334Y 349.999694824219
101574X 338.893493652344
101574Y 338.893493652344
101274X 343.691192626953
101274Y 343.691192626953
100914X 348.950286865234
100914Y 348.950286865234
4006333X 336.650787353516
4006333Y 336.650787353516
91307X 390.950805664063
91307Y 390.950805664063
101575X 338.884490966797
101575Y 338.884490966797
102089X 358.699310302734
102089Y 358.699310302734
4001705X 336.035003662109
4001705Y 336.035003662109
90295X 370.631988525391
90295Y 370.631988525391
100913X 348.943603515625
100913Y 348.943603515625
100727X 348.748687744141
100727Y 348.748687744141
92305X 389.396911621094
92305Y 389.396911621094
92307X 388.563110351563
92307Y 388.563110351563
92308X 389.950286865234
92308Y 389.950286865234
92309X 389.162994384766
92309Y 389.162994384766
94122X 376.730194091797
94122Y 376.730194091797
94123X 376.981201171875
94123Y 376.981201171875
94124X 389.422790527344
94124Y 389.422790527344
94125X 373.467987060547
94125Y 373.467987060547
94126X 385.100402832031
94126Y 385.100402832031
94127X 373.828491210938
94127Y 373.828491210938
899987X 381.412200927734
899987Y 381.412200927734
XXXX000004 343.484100341797
XXXX000005 340.608489990234
XXXX000006 340.999298095703
XXXX000035 342.903106689453
XXXX000076 376.016296386719
XXXX000077 376.232086181641
XXXX000078 377.421813964844
XXXX000082 347.023986816406
XXXX000083 343.961791992188
XXXX000084 343.734588623047
XXXX000089 347.825805664063
XXXX000090 347.984497070313
XXXX000091 382.548095703125
XXXX000102 356.822601318359
XXXX000103 357.567993164063
XXXX000104 358.093597412109
XXXX000117 368.763092041016
XXXX000118 369.000213623047
XXXX000156 339.001190185547
XXXX000157 337.859710693359
XXXX000167 338.936492919922
XXXX000168 338.938385009766
XXXX000169 338.998687744141
XXXX000200 389.422790527344
XXXX000201 379.542388916016
XXXX000202 385.100402832031
XXXX000203 376.992004394531
XXXX000232 383.752807617188
XXXX000233 384.591491699219
XXXX000236 390.897491455078
XXXX000263 347.999114990234
XXXX000264 343.948699951172
XXXX000270 361.420288085938
XXXX000271 354.917388916016
XXXX000273 361.420288085938
XXXX000279 336.275390625000
XXXX000280 335.674285888672
XXXX000297 342.998504638672
XXXX000298 342.489501953125
XXXX000299 342.710388183594
XXXX000312 353.637390136719
XXXX000313 354.221313476563
XXXX000314 353.850708007813
XXXX000379 347.997894287109
XXXX000380 348.691711425781
XXXX000416 361.580413818359
XXXX000417 362.605804443359
XXXX000421 368.009887695313
XXXX000422 366.106689453125
XXXX000423 366.106689453125
XXXX000430 361.783386230469
XXXX000431 365.110595703125
XXXX000472 350.849700927734
XXXX000473 349.546600341797
XXXX000474 344.195190429688
XXXX000475 343.958007812500
XXXX000476 343.801513671875
XXXX000477 343.801513671875
XXXX000497 348.202911376953
XXXX000498 349.005493164063
XXXX000505 359.630096435547
XXXX000506 351.467285156250
XXXX000507 355.672302246094
XXXX000508 358.946899414063
XXXX000509 353.987213134766
XXXX000510 351.932708740234
XXXX000511 357.279296875000
XXXX000512 367.101013183594
XXXX000527 376.704010009766
XXXX000528 376.981201171875
XXXX000529 377.527893066406
XXXX000534 362.086303710938
XXXX000535 367.055603027344
XXXX000536 362.815612792969
XXXX000558 338.627105712891
XXXX000559 337.998413085938
XXXX000560 337.987609863281
XXXX000561 359.425811767578
XXXX000562 361.319488525391
XXXX000563 361.580413818359
XXXX000569 347.991088867188
XXXX000570 344.004211425781
XXXX000597 381.435607910156
XXXX000598 381.435607910156
XXXX000599 378.674499511719
XXXX000601 349.042785644531
XXXX000602 348.985290527344
XXXX000603 348.945007324219
XXXX000610 356.995513916016
XXXX000611 357.119201660156
XXXX000612 357.119201660156
XXXX000616 346.936004638672
XXXX000617 348.019989013672
XXXX000656 349.904510498047
XXXX000657 348.257507324219
XXXX000673 376.051513671875
XXXX000674 376.424407958984
XXXX000683 358.025207519531
XXXX000684 358.112487792969
XXXX000711 349.049407958984
XXXX000712 354.072296142578
XXXX000713 350.993103027344
XXXX000725 343.913787841797
XXXX000726 343.236694335938
XXXX000727 343.779693603516
XXXX000749 389.684387207031
XXXX000750 389.418090820313
XXXX000751 389.950286865234
XXXX000752 391.157501220703
XXXX000753 383.167205810547
XXXX000754 381.097412109375
XXXX000755 390.950805664063
XXXX000756 390.023010253906
XXXX000760 361.471099853516
XXXX000761 359.695098876953
XXXX000762 358.001403808594
XXXX000765 348.067687988281
XXXX000766 347.995910644531
XXXX000767 348.042785644531
XXXX000787 361.998901367188
XXXX000788 366.893188476563
XXXX000789 366.999786376953
XXXX000790 366.774597167969
XXXX000806 347.976013183594
XXXX000807 346.997711181641
XXXX000817 350.000396728516
XXXX000818 349.999389648438
XXXX000819 349.994598388672
XXXX000820 346.927703857422
XXXX000821 345.998596191406
XXXX000822 345.998596191406
XXXX000823 346.944488525391
XXXX000824 342.489501953125
XXXX000825 341.929199218750
XXXX000853 347.158599853516
XXXX000897 379.912902832031
XXXX000898 379.912902832031
XXXX000899 345.999114990234
XXXX000903 338.979797363281
XXXX000905 368.249603271484
XXXX000909 354.978393554688
XXXX000910 351.823486328125
XXXX000913 336.591400146484
XXXX000953 360.991394042969
XXXX000954 360.991394042969
XXXX000955 361.420288085938
XXXX000962 356.031890869141
XXXX001002 347.968994140625
XXXX001003 345.571807861328
XXXX001060 346.583099365234
XXXX001077 375.898986816406
XXXX001078 372.065612792969
XXXX001079 368.623199462891
XXXX001080 375.411712646484
XXXX001081 375.285491943359
XXXX001082 375.092895507813
XXXX001083 375.969390869141
XXXX001090 340.539611816406
XXXX001091 338.974609375000
XXXX001097 368.739685058594
XXXX001099 338.941589355469
XXXX001100 337.996398925781
XXXX001101 339.022308349609
XXXX001102 338.401214599609
XXXX001103 339.027496337891
XXXX001104 342.938903808594
XXXX001107 374.887695312500
XXXX001130 378.221588134766
XXXX001139 348.940490722656
XXXX001140 348.744293212891
XXXX001141 356.487915039063
XXXX001145 349.994201660156
XXXX001146 348.963592529297
XXXX001147 349.845489501953
XXXX001151 357.461212158203
XXXX001152 353.490295410156
XXXX001153 350.488311767578
XXXX001161 343.983612060547
XXXX001162 343.994110107422
XXXX001167 373.828491210938
XXXX001168 370.994293212891
XXXX001182 347.999114990234
XXXX001183 349.679290771484
XXXX001184 350.480895996094
XXXX001185 349.679290771484
XXXX001186 349.041595458984
XXXX001187 349.887298583984
XXXX001202 379.367187500000
XXXX001235 349.878509521484
XXXX001236 339.161895751953
XXXX001251 382.105194091797
XXXX001252 382.105194091797
XXXX001253 386.322814941406
XXXX001255 371.997100830078
XXXX001262 348.748687744141
XXXX001263 347.961486816406
XXXX001264 347.979705810547
XXXX001269 343.900207519531
XXXX001270 343.900207519531
XXXX001296 350.897705078125
XXXX001297 350.942413330078
XXXX001311 347.998687744141
XXXX001316 362.080810546875
XXXX001320 353.964508056641
XXXX001321 350.720306396484
XXXX001322 349.546600341797
XXXX001323 368.998504638672
XXXX001341 348.997985839844
XXXX001357 343.185607910156
XXXX001358 342.440093994141
XXXX001359 342.440093994141
XXXX001360 342.999114990234
XXXX001380 362.880004882813
XXXX001381 362.296997070313
XXXX001382 348.998107910156
XXXX001383 347.966186523438
XXXX001390 360.542785644531
XXXX001391 360.542785644531
XXXX001392 359.995697021484
XXXX001393 357.212799072266
XXXX001403 376.016296386719
XXXX001404 375.027801513672
XXXX001405 375.890686035156
XXXX001432 358.699310302734
XXXX001441 352.048095703125
XXXX001442 349.777893066406
XXXX001443 370.801300048828
XXXX001449 342.986297607422
XXXX001452 341.747711181641
XXXX001488 378.438293457031
XXXX001489 372.600402832031
XXXX001490 343.574890136719
XXXX001503 348.984313964844
XXXX001504 349.014099121094
XXXX001516 339.948913574219
XXXX001517 337.997100830078
XXXX001547 380.175811767578
XXXX001548 382.042388916016
XXXX001549 382.347900390625
XXXX001554 350.905914306641
XXXX001555 351.855987548828
XXXX001556 352.737304687500
XXXX001557 350.955108642578
XXXX001558 349.492095947266
XXXX001568 385.062896728516
XXXX001574 348.688598632813
XXXX001575 368.007202148438
XXXX001576 380.121002197266
XXXX001614 367.895385742188
XXXX001624 350.860687255859
XXXX001625 350.959686279297
XXXX001637 344.015014648438
XXXX001638 347.092102050781
XXXX001639 343.918090820313
XXXX001649 378.959899902344
XXXX001650 375.837005615234
XXXX001661 344.757690429688
XXXX001662 344.500000000000
XXXX001663 345.076202392578
XXXX001664 344.914611816406
XXXX001672 370.786895751953
XXXX001673 374.154907226563
XXXX001674 370.041107177734
XXXX001684 353.373809814453
XXXX001685 350.924987792969
XXXX001687 368.000213623047
XXXX001688 343.109985351563
XXXX001701 360.542785644531
XXXX001702 359.619995117188
XXXX001746 350.000396728516
XXXX001747 340.327087402344
XXXX001749 346.705902099609
XXXX001765 384.485198974609
XXXX001766 389.038604736328
XXXX001767 391.235198974609
XXXX001770 365.110595703125
XXXX001771 365.538604736328
XXXX001803 367.532409667969
XXXX001807 358.010009765625
XXXX001817 359.425811767578
XXXX001824 341.792114257813
XXXX001825 343.911590576172
XXXX001840 354.223785400391
XXXX001841 350.884704589844
XXXX002049 337.945892333984
X345 370.041107180000
X456 370.041107180000
X0034345 336.591400150000
3649 344.757690429688
3736 367.920104980469
3628 353.452514648438
3623 353.987213134766
4291 382.512908935547
3734 366.106689453125
3378 347.954895019531
3383 347.995910644531
3301 346.936004638672
3293 348.963592529297
3612 348.998107910156
3892 340.327087402344
3492 350.959686279297
3646 342.986297607422
3629 350.491912841797
4179 340.999298095703
4485 378.438293457031
3999 339.027496337891
3289 345.770812988281
3994 341.747711181641
3292 349.845489501953
3618 359.695098876953
3733 368.000213623047
3297 346.583099365234
3384 347.976013183594
4977 389.305694580078
4978 391.030700683594
4979 390.023010253906
4980 382.995208740234
6097 378.221588134766
6098 379.542388916016
6099 373.828491210938
6100 385.032104492188
3495 350.480895996094
3380 349.492095947266
4298 375.285491943359
3731 366.893188476563
3996 338.998687744141
3889 343.872802734375
3896 338.979797363281
3620 362.583892822266
3639 353.964508056641
3290 348.127685546875
3291 350.942413330078
4301 357.966003417969
3298 345.998596191406
3619 361.760406494141
3741 343.153686523438
3621 362.880004882813
3647 343.963989257813
3728 362.815612792969
3496 349.887298583984
3893 337.998413085938
3746 343.997802734375
4335 341.674194335938
3729 368.189208984375
3632 349.014099121094
3295 347.825805664063
3626 358.999114990234
3732 367.000213623047
3995 338.938385009766
3640 350.989593505859
3386 348.202911376953
3634 351.823486328125
3641 352.892791748047
3302 348.002593994141
3299 346.705902099609
3642 343.998504638672
4181 339.334686279297
3997 337.945892333984
3993 362.080810546875
3730 368.998504638672
3648 343.999603271484
4182 338.605102539063
4292 378.674499511719
3890 347.009399414063
3489 350.860687255859
3745 344.914611816406
4296 370.145385742188
4487 375.969390869141
3744 345.029785156250
3633 349.999389648438
3488 351.883697509766
3735 371.997100830078
3300 346.013305664063
3743 344.004211425781
3894 338.000793457031
3643 342.998504638672
3294 348.905792236328
4295 375.993713378906
3627 357.461212158203
3637 350.849700927734
3387 346.997711181641
3749 360.148010253906
3617 354.223785400391
3740 343.349212646484
3635 355.000488281250
4488 375.500213623047
3613 350.993103027344
3408 348.971191406250
3622 351.995605468750
3742 343.574890136719
3631 348.984313964844
3493 349.041595458984
3737 367.532409667969
3615 354.072296142578
3385 348.023895263672
3895 342.999114990234
4577 349.979888916016
3382 347.998687744141
3636 353.760894775391
3747 367.101013183594
3381 348.997985839844
3379 348.876892089844
3630 348.596313476563
4490 385.062896728516
4294 370.664398193359
3494 349.679290771484
3490 353.373809814453
3891 344.015014648438
4486 372.600402832031
3752 361.510192871094
4334 343.911590576172
3614 352.048095703125
3751 357.119598388672
3491 350.924987792969
3638 350.720306396484
3750 357.119201660156
3624 355.672302246094
4297 378.602508544922
3616 350.884704589844
3753 358.112487792969
3754 359.619995117188
4180 339.948913574219
3998 338.941589355469
4489 378.914001464844
3296 346.968292236328
3748 365.744995117188
4300 377.771606445313
3625 357.279296875000
4299 382.202514648438
3755 356.031890869141
[RESERVOIRS]
Main_WTW 410.000000 Main_WTW
[PIPES]
824 XXXX000004 101494Y 8.288971 150.000000 0.100000 0.000000 
825 101924X XXXX000005 7.821586 150.000000 0.100000 0.000000 
826 101494X XXXX000006 65.812210 150.000000 0.100000 0.000000 
827 XXXX000006 101924Y 109.843193 150.000000 0.100000 0.000000 
828 XXXX000005 101925Y 12.523799 250.000000 0.100000 0.000000 
829 101925X 101284Y 57.407299 250.000000 0.100000 0.000000 
830 101284X XXXX000035 6.847070 250.000000 0.100000 0.000000 
831 XXXX000076 XXXX000077 7.512389 100.000000 0.100000 0.000000 
832 XXXX000077 XXXX000078 66.970367 100.000000 0.100000 0.000000 
833 XXXX000082 100589Y 11.745332 100.000000 0.100000 0.000000 
834 100589X XXXX000083 64.439407 100.000000 0.100000 0.000000 
835 XXXX000083 XXXX000084 10.374637 100.000000 0.100000 0.000000 
836 XXXX000089 100587X 11.350324 250.000000 0.100000 0.000000 
837 100587Y XXXX000090 65.281822 250.000000 0.100000 0.000000 
838 XXXX000091 91384Y 5.644570 250.000000 0.100000 0.000000 
839 XXXX000102 XXXX000103 27.439226 250.000000 0.100000 0.000000 
840 XXXX000103 XXXX000104 11.706957 250.000000 0.100000 0.000000 
841 XXXX000117 101262X 5.046865 100.000000 0.100000 0.000000 
842 101263Y XXXX000118 5.480991 100.000000 0.100000 0.000000 
843 101262Y 101263X 49.504841 100.000000 0.100000 0.000000 
844 XXXX000156 101582X 69.995232 100.000000 0.100000 0.000000 
845 101582Y XXXX000157 6.332214 100.000000 0.100000 0.000000 
846 XXXX000167 101580X 2.701222 100.000000 0.100000 0.000000 
847 101580Y XXXX000168 4.382372 100.000000 0.100000 0.000000 
848 XXXX000168 101581X 64.020569 100.000000 0.100000 0.000000 
849 101581Y XXXX000169 42.888535 100.000000 0.100000 0.000000 
850 XXXX000169 XXXX000156 26.975834 100.000000 0.100000 0.000000 
851 XXXX000200 94124X 0.900000 250.000000 0.100000 0.000000 
852 94126X XXXX000201 139.810181 250.000000 0.100000 0.000000 
853 XXXX000201 94123Y 48.785076 250.000000 0.100000 0.000000 
854 94124Y XXXX000202 152.287552 250.000000 0.100000 0.000000 
855 XXXX000202 94126Y 1.243857 250.000000 0.100000 0.000000 
856 94123X XXXX000203 5.551486 250.000000 0.100000 0.000000 
857 XXXX000232 XXXX000091 39.047302 300.000000 0.100000 0.000000 
858 XXXX000233 XXXX000232 6.587164 300.000000 0.100000 0.000000 
859 XXXX000236 XXXX000233 167.541763 300.000000 0.100000 0.000000 
860 100737X XXXX000263 6.996877 250.000000 0.100000 0.000000 
861 XXXX000264 101279X 8.008282 150.000000 0.100000 0.000000 
862 101279Y XXXX000004 70.564514 150.000000 0.100000 0.000000 
863 XXXX000270 XXXX000271 220.942352 300.000000 0.100000 0.000000 
864 XXXX000279 XXXX000280 241.858170 300.000000 0.100000 0.000000 
865 XXXX000084 101160Y 6.687099 100.000000 0.100000 0.000000 
866 101160X XXXX000297 132.931808 100.000000 0.100000 0.000000 
867 XXXX000297 101158Y 106.450500 100.000000 0.100000 0.000000 
868 XXXX000298 XXXX000299 6.167518 100.000000 0.100000 0.000000 
869 101158X XXXX000298 1.326147 100.000000 0.100000 0.000000 
870 XXXX000312 101149X 6.510580 100.000000 0.100000 0.000000 
871 101148Y XXXX000313 5.205670 100.000000 0.100000 0.000000 
872 101149Y XXXX000314 11.170606 100.000000 0.100000 0.000000 
873 XXXX000314 101148X 55.273495 100.000000 0.100000 0.000000 
874 XXXX000379 100731X 6.774908 250.000000 0.100000 0.000000 
875 101140Y XXXX000380 9.982199 250.000000 0.100000 0.000000 
876 100731Y 101140X 77.503769 250.000000 0.100000 0.000000 
877 XXXX000416 XXXX000417 60.766792 250.000000 0.100000 0.000000 
878 XXXX000421 XXXX000422 38.976543 100.000000 0.100000 0.000000 
879 XXXX000422 90271Y 1.549685 100.000000 0.100000 0.000000 
880 90271X XXXX000423 2.186666 100.000000 0.100000 0.000000 
881 XXXX000416 XXXX000430 6.703094 100.000000 0.100000 0.000000 
882 XXXX000430 XXXX000431 97.493660 100.000000 0.100000 0.000000 
883 XXXX000312 XXXX000472 82.499077 250.000000 0.100000 0.000000 
884 XXXX000472 101138Y 39.649128 250.000000 0.100000 0.000000 
885 101138X XXXX000473 3.874415 250.000000 0.100000 0.000000 
886 XXXX000474 101210Y 5.041173 100.000000 0.100000 0.000000 
887 101210X XXXX000475 131.895416 100.000000 0.100000 0.000000 
888 XXXX000475 XXXX000476 120.260765 100.000000 0.100000 0.000000 
889 XXXX000476 XXXX000477 8.392687 100.000000 0.100000 0.000000 
890 XXXX000379 100732Y 5.571734 250.000000 0.100000 0.000000 
891 100732X XXXX000497 4.188017 250.000000 0.100000 0.000000 
892 XXXX000497 100733Y 34.245163 250.000000 0.100000 0.000000 
893 100733X XXXX000498 11.900065 250.000000 0.100000 0.000000 
894 XXXX000505 101133Y 8.865837 100.000000 0.100000 0.000000 
895 100905X XXXX000506 7.084487 100.000000 0.100000 0.000000 
896 101124Y XXXX000507 2.028672 100.000000 0.100000 0.000000 
897 XXXX000507 101125Y 128.207062 100.000000 0.100000 0.000000 
898 101133X XXXX000508 38.442581 100.000000 0.100000 0.000000 
899 XXXX000508 101123X 141.757980 100.000000 0.100000 0.000000 
900 101125X XXXX000509 2.223279 100.000000 0.100000 0.000000 
901 XXXX000509 101126Y 134.812546 100.000000 0.100000 0.000000 
902 101126X XXXX000510 2.534606 100.000000 0.100000 0.000000 
903 XXXX000510 100905Y 43.354446 100.000000 0.100000 0.000000 
904 101123Y XXXX000511 1.434725 100.000000 0.100000 0.000000 
905 XXXX000511 101124X 128.379761 100.000000 0.100000 0.000000 
906 XXXX000512 101256Y 68.601501 100.000000 0.100000 0.000000 
907 101256X XXXX000431 8.531863 100.000000 0.100000 0.000000 
908 XXXX000527 XXXX000528 11.666190 150.000000 0.100000 0.000000 
909 XXXX000528 XXXX000529 35.701618 150.000000 0.100000 0.000000 
910 XXXX000534 101128X 13.040415 100.000000 0.100000 0.000000 
911 101260Y XXXX000535 75.182289 100.000000 0.100000 0.000000 
912 101128Y XXXX000536 57.485615 100.000000 0.100000 0.000000 
913 XXXX000536 101260X 17.965097 100.000000 0.100000 0.000000 
914 XXXX000280 4001705Y 21.293449 250.000000 0.100000 0.000000 
915 XXXX000558 XXXX000559 63.309242 150.000000 0.100000 0.000000 
916 XXXX000559 101497Y 0.400000 150.000000 0.100000 0.000000 
917 101497X XXXX000560 9.249992 150.000000 0.100000 0.000000 
918 XXXX000561 XXXX000562 67.831543 250.000000 0.100000 0.000000 
919 XXXX000562 XXXX000563 5.901314 250.000000 0.100000 0.000000 
920 XXXX000563 XXXX000416 6.521978 250.000000 0.100000 0.000000 
921 XXXX000263 XXXX000569 16.395897 250.000000 0.100000 0.000000 
922 XXXX000569 101278Y 119.765282 250.000000 0.100000 0.000000 
923 101278X XXXX000570 8.098779 250.000000 0.100000 0.000000 
924 XXXX000570 XXXX000264 16.332006 250.000000 0.100000 0.000000 
925 XXXX000527 102071X 5.904819 150.000000 0.100000 0.000000 
926 XXXX000597 102072X 0.352523 150.000000 0.100000 0.000000 
927 102072Y XXXX000598 4.854986 150.000000 0.100000 0.000000 
928 102071Y XXXX000599 37.787689 150.000000 0.100000 0.000000 
929 XXXX000599 XXXX000597 126.352867 150.000000 0.100000 0.000000 
930 XXXX000597 102072X 0.352523 150.000000 0.100000 0.000000 
931 XXXX000601 100725X 7.495121 100.000000 0.100000 0.000000 
932 100725Y XXXX000602 33.117565 100.000000 0.100000 0.000000 
933 XXXX000602 XXXX000603 41.398270 100.000000 0.100000 0.000000 
934 XXXX000102 XXXX000610 5.037959 100.000000 0.100000 0.000000 
935 XXXX000610 XXXX000611 72.638634 100.000000 0.100000 0.000000 
936 XXXX000611 XXXX000612 3.123904 100.000000 0.100000 0.000000 
937 XXXX000089 100588Y 10.171879 100.000000 0.100000 0.000000 
938 100584X XXXX000616 149.067657 100.000000 0.100000 0.000000 
939 XXXX000616 100592Y 51.075935 100.000000 0.100000 0.000000 
940 100588X XXXX000617 123.443466 100.000000 0.100000 0.000000 
941 XXXX000617 100584Y 5.919130 100.000000 0.100000 0.000000 
942 100592X XXXX000082 7.389289 100.000000 0.100000 0.000000 
943 XXXX000656 100604Y 4.891259 250.000000 0.100000 0.000000 
944 100604X XXXX000657 52.652016 250.000000 0.100000 0.000000 
945 XXXX000657 102270Y 9.044988 250.000000 0.100000 0.000000 
946 XXXX000498 100737Y 61.678116 250.000000 0.100000 0.000000 
947 XXXX000598 XXXX000673 111.042305 250.000000 0.100000 0.000000 
948 XXXX000673 XXXX000674 12.548018 250.000000 0.100000 0.000000 
949 XXXX000104 XXXX000683 10.988540 100.000000 0.100000 0.000000 
950 XXXX000683 XXXX000684 56.093262 100.000000 0.100000 0.000000 
951 XXXX000711 101117X 10.223548 100.000000 0.100000 0.000000 
952 101118Y XXXX000712 154.572769 100.000000 0.100000 0.000000 
953 101117Y XXXX000713 91.048775 100.000000 0.100000 0.000000 
954 XXXX000713 101118X 1.324255 100.000000 0.100000 0.000000 
955 XXXX000035 101275Y 10.220148 250.000000 0.100000 0.000000 
956 101274X XXXX000725 11.574861 250.000000 0.100000 0.000000 
957 101275X XXXX000726 26.131992 250.000000 0.100000 0.000000 
958 XXXX000727 101274Y 0.910612 250.000000 0.100000 0.000000 
959 XXXX000726 XXXX000727 90.001404 250.000000 0.100000 0.000000 
960 XXXX000200 XXXX000749 3.839863 250.000000 0.100000 0.000000 
961 XXXX000749 XXXX000750 11.391185 250.000000 0.100000 0.000000 
962 XXXX000750 92305X 12.862190 150.000000 0.100000 0.000000 
963 92308X XXXX000751 5.823587 150.000000 0.100000 0.000000 
964 92305Y XXXX000752 86.239792 150.000000 0.100000 0.000000 